/*--------------------------------*- C++ -*----------------------------------*\
  =========                 |
  \\      /  F ield         | OpenFOAM: The Open Source CFD Toolbox
   \\    /   O peration     | Website:  https://openfoam.org
    \\  /    A nd           | Version:  9
     \\/     M anipulation  |
\*---------------------------------------------------------------------------*/
FoamFile
{
    format      ascii;
    class       polyBoundaryMesh;
    location    "constant/polyMesh";
    object      boundary;
}
// * * * * * * * * * * * * * * * * * * * * * * * * * * * * * * * * * * * * * //

6
(
    back 
    {
        type            empty;
        physicalType    patch;
        nFaces          1655;
        startFace       2420;
    }
    front 
    {
        type            empty;
        physicalType    patch;
        nFaces          1655;
        startFace       4075;
    }
    top
    {
        type            patch;
        physicalType    patch;
        nFaces          15;
        startFace       5730;
    }
    outer_arc 
    {
        type            wall;
        physicalType    patch;
        nFaces          70;
        startFace       5745;
    }
    bottom
    {
        type            patch;
        physicalType    patch;
        nFaces          15;
        startFace       5815;
    }
    inner_arc 
    {
        type            wall;
        physicalType    patch;
        nFaces          25;
        startFace       5830;
    }
)

// ************************************************************************* //
