/*--------------------------------*- C++ -*----------------------------------*\
  =========                 |
  \\      /  F ield         | OpenFOAM: The Open Source CFD Toolbox
   \\    /   O peration     | Website:  https://openfoam.org
    \\  /    A nd           | Version:  9
     \\/     M anipulation  |
\*---------------------------------------------------------------------------*/
FoamFile
{
    format      ascii;
    class       polyBoundaryMesh;
    location    "constant/polyMesh";
    object      boundary;
}
// * * * * * * * * * * * * * * * * * * * * * * * * * * * * * * * * * * * * * //

7
(
    front
    {
        type            empty;
        nFaces          578;
        startFace       816;
    }
    back
    {
        type            empty;
        nFaces          578;
        startFace       1394;
    }
    bottom
    {
        type            patch;
        nFaces          12;
        startFace       1972;
    }
    left
    {
        type            wall;
        nFaces          28;
        startFace       1984;
    }
    top
    {
        type            patch;
        nFaces          8;
        startFace       2012;
    }
    right
    {
        type            wall;
        nFaces          28;
        startFace       2020;
    }
    inner_arc
    {
        type            wall;
        nFaces          26;
        startFace       2048;
    }
)

// ************************************************************************* //
