/*--------------------------------*- C++ -*----------------------------------*\
  =========                 |
  \\      /  F ield         | OpenFOAM: The Open Source CFD Toolbox
   \\    /   O peration     | Website:  https://openfoam.org
    \\  /    A nd           | Version:  9
     \\/     M anipulation  |
\*---------------------------------------------------------------------------*/
FoamFile
{
    format      ascii;
    class       polyBoundaryMesh;
    location    "constant/polyMesh";
    object      boundary;
}
// * * * * * * * * * * * * * * * * * * * * * * * * * * * * * * * * * * * * * //

7
(
    back
    {
        type            empty;
        physicalType    patch;
        nFaces          575;
        startFace       821;
    }
    front
    {
        type            empty;
        physicalType    patch;
        nFaces          575;
        startFace       1396;
    }
    left
    {
        type            patch;
        physicalType    patch;
        nFaces          25;
        startFace       1971;
    }
    top
    {
        type            patch;
        physicalType    patch;
        nFaces          8;
        startFace       1996;
    }
    right_main
    {
        type            patch;
        physicalType    patch;
        nFaces          38;
        startFace       2004;
    }
    right_branch
    {
        type            patch;
        physicalType    patch;
        nFaces          4;
        startFace       2042;
    }
    bottom
    {
        type            patch;
        physicalType    patch;
        nFaces          8;
        startFace       2046;
    }
)

// ************************************************************************* //
