/*--------------------------------*- C++ -*----------------------------------*\
  =========                 |
  \\      /  F ield         | OpenFOAM: The Open Source CFD Toolbox
   \\    /   O peration     | Website:  https://openfoam.org
    \\  /    A nd           | Version:  9
     \\/     M anipulation  |
\*---------------------------------------------------------------------------*/
FoamFile
{
    format      ascii;
    class       polyBoundaryMesh;
    location    "constant/polyMesh";
    object      boundary;
}
// * * * * * * * * * * * * * * * * * * * * * * * * * * * * * * * * * * * * * //

7
(
    back
    {
        type            empty;
        physicalType    patch;
        nFaces          8357;
        startFace       12374;
    }
    front
    {
        type            empty;
        physicalType    patch;
        nFaces          8357;
        startFace       20731;
    }
    left
    {
        type            patch;
        physicalType    patch;
        nFaces          100;
        startFace       29088;
    }
    top
    {
        type            patch;
        physicalType    patch;
        nFaces          30;
        startFace       29188;
    }
    right_main
    {
        type            patch;
        physicalType    patch;
        nFaces          148;
        startFace       29218;
    }
    right_branch
    {
        type            patch;
        physicalType    patch;
        nFaces          15;
        startFace       29366;
    }
    bottom
    {
        type            patch;
        physicalType    patch;
        nFaces          30;
        startFace       29381;
    }
)

// ************************************************************************* //
