/*--------------------------------*- C++ -*----------------------------------*\
  =========                 |
  \\      /  F ield         | OpenFOAM: The Open Source CFD Toolbox
   \\    /   O peration     | Website:  https://openfoam.org
    \\  /    A nd           | Version:  9
     \\/     M anipulation  |
\*---------------------------------------------------------------------------*/
FoamFile
{
    format      ascii;
    class       volScalarField;
    object      p;
}
// * * * * * * * * * * * * * * * * * * * * * * * * * * * * * * * * * * * * * //

dimensions      [0 2 -2 0 0 0 0];

internalField   uniform 0;

boundaryField
{
    front
    {
        type            empty;
    }

    back
    {
        type            empty;
    }

    bottom
    {
	type		uniformFixedValue;
    	uniformValue
    	{
		type			tableFile;
		format			csv;
		nHeaderLine		1;
		refColumn		0;
		componentColumns	(1);
		separator		",";
		mergeSeparators		no;
        	file			"outlet_p.csv";
    	}
    }

    inner_arc
    {
        type            zeroGradient;
    }

    top
    {
	type		zeroGradient;
    }

    outer_arc
    {
        type            zeroGradient;
    }
    
}

// ************************************************************************* //
