/*--------------------------------*- C++ -*----------------------------------*\
  =========                 |
  \\      /  F ield         | OpenFOAM: The Open Source CFD Toolbox
   \\    /   O peration     | Website:  https://openfoam.org
    \\  /    A nd           | Version:  9
     \\/     M anipulation  |
\*---------------------------------------------------------------------------*/
FoamFile
{
    format      ascii;
    class       polyBoundaryMesh;
    location    "constant/polyMesh";
    object      boundary;
}
// * * * * * * * * * * * * * * * * * * * * * * * * * * * * * * * * * * * * * //

6
(
    back
    {
        type            patch;
        physicalType    patch;
        nFaces          2044;
        startFace       2977;
    }
    front
    {
        type            patch;
        physicalType    patch;
        nFaces          2044;
        startFace       5021;
    }
    left
    {
        type            patch;
        physicalType    patch;
        nFaces          78;
        startFace       7065;
    }
    top
    {
        type            patch;
        physicalType    patch;
        nFaces          11;
        startFace       7143;
    }
    right
    {
        type            patch;
        physicalType    patch;
        nFaces          78;
        startFace       7154;
    }
    bottom
    {
        type            patch;
        physicalType    patch;
        nFaces          11;
        startFace       7232;
    }
)

// ************************************************************************* //
