/*--------------------------------*- C++ -*----------------------------------*\
  =========                 |
  \\      /  F ield         | OpenFOAM: The Open Source CFD Toolbox
   \\    /   O peration     | Website:  https://openfoam.org
    \\  /    A nd           | Version:  9
     \\/     M anipulation  |
\*---------------------------------------------------------------------------*/
FoamFile
{
    format      ascii;
    class       polyBoundaryMesh;
    location    "constant/polyMesh";
    object      boundary;
}
// * * * * * * * * * * * * * * * * * * * * * * * * * * * * * * * * * * * * * //

6
(
    back 
    {
        type            empty;
        physicalType    patch;
        nFaces          606;
        startFace       874;
    }
    front 
    {
        type            empty;
        physicalType    patch;
        nFaces          606;
        startFace       1480;
    }
    left
    {
        type            patch;
        physicalType    patch;
        nFaces          25;
        startFace       2086;
    }
    top
    {
        type            patch;
        physicalType    patch;
        nFaces          10;
        startFace       2111;
    }
    right
    {
        type            patch;
        physicalType    patch;
        nFaces          25;
        startFace       2121;
    }
    bottom
    {
        type            patch;
        physicalType    patch;
        nFaces          10;
        startFace       2146;
    }
)

// ************************************************************************* //
