/*--------------------------------*- C++ -*----------------------------------*\
  =========                 |
  \\      /  F ield         | OpenFOAM: The Open Source CFD Toolbox
   \\    /   O peration     | Website:  https://openfoam.org
    \\  /    A nd           | Version:  9
     \\/     M anipulation  |
\*---------------------------------------------------------------------------*/
FoamFile
{
    format      ascii;
    class       polyBoundaryMesh;
    location    "constant/polyMesh";
    object      boundary;
}
// * * * * * * * * * * * * * * * * * * * * * * * * * * * * * * * * * * * * * //

6
(
    back 
    {
        type            empty;
        physicalType    patch;
        nFaces          2510;
        startFace       3673;
    }
    front 
    {
        type            empty;
        physicalType    patch;
        nFaces          2510;
        startFace       6183;
    }
    left 
    {
        type            wall;
        physicalType    patch;
        nFaces          78;
        startFace       8693;
    }
    top
    {
        type            patch;
        physicalType    patch;
        nFaces          14;
        startFace       8771;
    }
    right 
    {
        type            wall;
        physicalType    patch;
        nFaces          78;
        startFace       8785;
    }
    bottom
    {
        type            patch;
        physicalType    patch;
        nFaces          14;
        startFace       8863;
    }
)

// ************************************************************************* //
