/*--------------------------------*- C++ -*----------------------------------*\
  =========                 |
  \\      /  F ield         | OpenFOAM: The Open Source CFD Toolbox
   \\    /   O peration     | Website:  https://openfoam.org
    \\  /    A nd           | Version:  9
     \\/     M anipulation  |
\*---------------------------------------------------------------------------*/
FoamFile
{
    format      ascii;
    class       polyBoundaryMesh;
    location    "constant/polyMesh";
    object      boundary;
}
// * * * * * * * * * * * * * * * * * * * * * * * * * * * * * * * * * * * * * //

6
(
    back 
    {
        type            empty;
        physicalType    patch;
        nFaces          10918;
        startFace       16191;
    }
    front 
    {
        type            empty;
        physicalType    patch;
        nFaces          10918;
        startFace       27109;
    }
    left
    {
        type            patch;
        physicalType    patch;
        nFaces          156;
        startFace       38027;
    }
    top
    {
        type            patch;
        physicalType    patch;
        nFaces          30;
        startFace       38183;
    }
    right
    {
        type            patch;
        physicalType    patch;
        nFaces          156;
        startFace       38213;
    }
    bottom
    {
        type            patch;
        physicalType    patch;
        nFaces          30;
        startFace       38369;
    }
)

// ************************************************************************* //
